Version 4
SHEET 1 2888 680
WIRE 928 -384 816 -384
WIRE 560 -320 496 -320
WIRE 656 -320 624 -320
WIRE 768 -320 736 -320
WIRE 816 -320 816 -384
WIRE 816 -320 768 -320
WIRE 832 -320 816 -320
WIRE 928 -320 928 -384
WIRE 928 -320 912 -320
WIRE 944 -320 928 -320
WIRE 1040 -320 1024 -320
WIRE 496 -208 496 -320
WIRE 560 -208 496 -208
WIRE 656 -208 624 -208
WIRE 768 -208 768 -320
WIRE 768 -208 736 -208
WIRE 816 -208 816 -320
WIRE 880 -208 816 -208
WIRE 1040 -208 1040 -320
WIRE 1040 -208 944 -208
WIRE 496 -192 496 -208
WIRE 576 -48 576 -80
WIRE 944 -16 928 -16
WIRE 1664 -16 1552 -16
WIRE 2352 -16 2352 -128
WIRE 848 0 848 -32
WIRE 896 0 848 0
WIRE 896 16 896 0
WIRE 912 16 912 -32
WIRE 928 16 928 -16
WIRE 816 32 816 -208
WIRE 880 32 816 32
WIRE 1040 48 1040 -208
WIRE 1040 48 944 48
WIRE 1120 48 1040 48
WIRE 1216 48 1184 48
WIRE 1344 48 1296 48
WIRE 1424 48 1344 48
WIRE 1552 48 1552 -16
WIRE 1552 48 1424 48
WIRE 1568 48 1552 48
WIRE 1664 48 1664 -16
WIRE 1664 48 1648 48
WIRE 1680 48 1664 48
WIRE 1840 48 1760 48
WIRE 1952 48 1920 48
WIRE 2032 48 1952 48
WIRE 2160 48 2096 48
WIRE 2304 48 2160 48
WIRE 384 64 96 64
WIRE 464 64 384 64
WIRE 576 64 576 32
WIRE 576 64 528 64
WIRE 656 64 576 64
WIRE 768 64 736 64
WIRE 880 64 768 64
WIRE 2160 64 2160 48
WIRE 384 80 384 64
WIRE 1344 80 1344 48
WIRE 1424 80 1424 48
WIRE 1952 96 1952 48
WIRE 2352 96 2352 80
WIRE 2496 96 2352 96
WIRE 2624 96 2560 96
WIRE 96 112 96 64
WIRE 768 112 768 64
WIRE 2352 128 2352 96
WIRE 2624 128 2624 96
WIRE 1344 160 1344 144
WIRE 1424 160 1424 144
WIRE 2160 160 2160 144
WIRE 384 176 384 160
WIRE 1952 176 1952 160
WIRE 768 192 768 176
WIRE 912 192 912 80
WIRE 96 208 96 192
WIRE 2624 224 2624 208
WIRE 2832 224 2624 224
WIRE 2624 240 2624 224
WIRE 2624 336 2624 320
WIRE 1088 432 1008 432
WIRE 1216 432 1168 432
WIRE 1280 432 1216 432
WIRE 1376 432 1280 432
WIRE 1472 432 1376 432
WIRE 1520 432 1520 400
WIRE 1520 432 1472 432
WIRE 1472 448 1472 432
WIRE 1008 464 1008 432
WIRE 1216 464 1216 432
WIRE 1280 464 1280 432
WIRE 1376 464 1376 432
WIRE 1472 544 1472 528
WIRE 1584 544 1584 512
WIRE 1584 544 1472 544
WIRE 1472 560 1472 544
WIRE 1584 560 1584 544
FLAG 96 208 0
FLAG 384 176 0
FLAG 576 -80 +4.5V
FLAG 768 192 0
FLAG 912 192 0
FLAG 944 -16 +9V
FLAG 496 -192 0
FLAG 1344 160 0
FLAG 1424 160 0
FLAG 1952 176 0
FLAG 2160 160 0
FLAG 2352 -128 +9V
FLAG 2352 208 0
FLAG 2624 336 0
FLAG 2832 224 out
FLAG 1008 544 0
FLAG 1520 400 +9V
FLAG 1216 528 0
FLAG 1280 528 0
FLAG 1376 528 0
FLAG 1472 640 0
FLAG 1584 624 0
FLAG 1584 512 +4.5V
SYMBOL voltage 96 96 R0
WINDOW 123 0 0 Left 0
WINDOW 39 0 0 Left 0
SYMATTR InstName V1
SYMATTR Value wavefile=guitar.wav
SYMBOL res 368 64 R0
SYMATTR InstName R1
SYMATTR Value 1Meg
SYMBOL cap 528 48 R90
WINDOW 0 0 32 VBottom 2
WINDOW 3 32 32 VTop 2
SYMATTR InstName C1
SYMATTR Value 22n
SYMBOL res 560 -64 R0
SYMATTR InstName R2
SYMATTR Value 1Meg
SYMBOL res 752 48 R90
WINDOW 0 0 56 VBottom 2
WINDOW 3 32 56 VTop 2
SYMATTR InstName R3
SYMATTR Value 1k
SYMBOL cap 752 112 R0
SYMATTR InstName C2
SYMATTR Value 1n
SYMBOL Opamps\\LM308 912 -16 R0
SYMATTR InstName U1
SYMBOL cap 912 -48 R90
WINDOW 0 0 32 VBottom 2
WINDOW 3 32 32 VTop 2
SYMATTR InstName C3
SYMATTR Value 30p
SYMBOL cap 944 -224 R90
WINDOW 0 0 32 VBottom 2
WINDOW 3 32 32 VTop 2
SYMATTR InstName C4
SYMATTR Value 100p
SYMBOL res 928 -336 R90
WINDOW 0 0 56 VBottom 2
WINDOW 3 32 56 VTop 2
SYMATTR InstName R4
SYMATTR Value 75k
SYMBOL res 1040 -336 R90
WINDOW 0 0 56 VBottom 2
WINDOW 3 32 56 VTop 2
SYMATTR InstName R5
SYMATTR Value 25k
SYMBOL res 752 -224 R90
WINDOW 0 0 56 VBottom 2
WINDOW 3 32 56 VTop 2
SYMATTR InstName R6
SYMATTR Value 560
SYMBOL res 752 -336 R90
WINDOW 0 0 56 VBottom 2
WINDOW 3 32 56 VTop 2
SYMATTR InstName R7
SYMATTR Value 47
SYMBOL cap 624 -336 R90
WINDOW 0 0 32 VBottom 2
WINDOW 3 32 32 VTop 2
SYMATTR InstName C5
SYMATTR Value 2.2µ
SYMBOL cap 624 -224 R90
WINDOW 0 0 32 VBottom 2
WINDOW 3 32 32 VTop 2
SYMATTR InstName C6
SYMATTR Value 4.7µ
SYMBOL cap 1184 32 R90
WINDOW 0 0 32 VBottom 2
WINDOW 3 32 32 VTop 2
SYMATTR InstName C7
SYMATTR Value 4.7µ
SYMBOL res 1312 32 R90
WINDOW 0 0 56 VBottom 2
WINDOW 3 32 56 VTop 2
SYMATTR InstName R8
SYMATTR Value 1k
SYMBOL diode 1360 144 R180
WINDOW 0 24 64 Left 2
WINDOW 3 24 0 Left 2
SYMATTR InstName D1
SYMATTR Value 1N914
SYMBOL diode 1408 80 R0
SYMATTR InstName D2
SYMATTR Value 1N914
SYMBOL res 1664 32 R90
WINDOW 0 0 56 VBottom 2
WINDOW 3 32 56 VTop 2
SYMATTR InstName R9
SYMATTR Value 1
SYMBOL res 1776 32 R90
WINDOW 0 0 56 VBottom 2
WINDOW 3 32 56 VTop 2
SYMATTR InstName R10
SYMATTR Value 100k
SYMBOL res 1936 32 R90
WINDOW 0 0 56 VBottom 2
WINDOW 3 32 56 VTop 2
SYMATTR InstName R11
SYMATTR Value 1.5k
SYMBOL cap 1936 96 R0
SYMATTR InstName C8
SYMATTR Value 3.3n
SYMBOL cap 2096 32 R90
WINDOW 0 0 32 VBottom 2
WINDOW 3 32 32 VTop 2
SYMATTR InstName C9
SYMATTR Value 22n
SYMBOL res 2144 48 R0
SYMATTR InstName R12
SYMATTR Value 1Meg
SYMBOL njf 2304 -16 R0
WINDOW 3 58 64 Left 2
SYMATTR Value 2N5484
SYMATTR InstName J1
SYMBOL res 2336 112 R0
SYMATTR InstName R13
SYMATTR Value 10k
SYMBOL cap 2560 80 R90
WINDOW 0 0 32 VBottom 2
WINDOW 3 32 32 VTop 2
SYMATTR InstName C10
SYMATTR Value 1µ
SYMBOL res 2608 112 R0
SYMATTR InstName R14
SYMATTR Value 50k
SYMBOL res 2608 224 R0
SYMATTR InstName R15
SYMATTR Value 50k
SYMBOL voltage 1008 448 R0
WINDOW 123 0 0 Left 0
WINDOW 39 0 0 Left 0
SYMATTR InstName V2
SYMATTR Value 9
SYMBOL res 1184 416 R90
WINDOW 0 0 56 VBottom 2
WINDOW 3 32 56 VTop 2
SYMATTR InstName R16
SYMATTR Value 47
SYMBOL diode 1232 528 R180
WINDOW 0 24 64 Left 2
WINDOW 3 24 0 Left 2
SYMATTR InstName D3
SYMATTR Value 1N4148
SYMBOL cap 1264 464 R0
SYMATTR InstName C11
SYMATTR Value 100µ
SYMBOL cap 1360 464 R0
SYMATTR InstName C12
SYMATTR Value 0.1µ
SYMBOL res 1456 432 R0
SYMATTR InstName R17
SYMATTR Value 100k
SYMBOL res 1456 544 R0
SYMATTR InstName R18
SYMATTR Value 100k
SYMBOL cap 1568 560 R0
SYMATTR InstName C13
SYMATTR Value 1µ
TEXT -72 376 Left 2 !.wave "C:\\Users\\Jacob\\Desktop\\Pro_Co_Rat.wav" 16 44.1k out
TEXT 880 -408 Left 2 ;Distortion
TEXT 1640 -48 Left 2 ;Tone
TEXT 2632 72 Left 2 ;Volume
TEXT 1232 368 Left 2 ;Power Supply
TEXT 96 256 Left 2 !.tran 8
